/*--------------------------------*- C++ -*----------------------------------*\
  =========                 |
  \\      /  F ield         | OpenFOAM: The Open Source CFD Toolbox
   \\    /   O peration     | Website:  https://openfoam.org
    \\  /    A nd           | Version:  8
     \\/     M anipulation  |
\*---------------------------------------------------------------------------*/
FoamFile
{
    version     2.0;
    format      ascii;
    class       polyBoundaryMesh;
    location    "constant/polyMesh";
    object      boundary;
}
// * * * * * * * * * * * * * * * * * * * * * * * * * * * * * * * * * * * * * //

3
(
    outlet
    {
        type            outlet;
        nFaces          624;
        startFace       1529894;
    }
    inlet
    {
        type            inlet;
        nFaces          300;
        startFace       1530518;
    }
    region0_to_wallFilmRegion_wallFilmFaces
    {
        type            mappedWall;
        inGroups        List<word> 1(wall);
        nFaces          7108;
        startFace       1530818;
        sampleMode      nearestPatchFace;
        sampleRegion    wallFilmRegion;
        samplePatch     region0_to_wallFilmRegion_wallFilmFaces;
        offsetMode      nonuniform;
        offsets         nonuniform List<vector> 
7108
(
(6.93889e-18 -0 -0)
(1.38778e-17 -0 2.77556e-17)
(-0 -5.55112e-17 -1.38778e-17)
(-1.38778e-17 -0 -1.38778e-17)
(-0 -0 -0)
(-0 -0 -2.77556e-17)
(-0 -0 1.38778e-17)
(1.38778e-17 5.55112e-17 -1.38778e-17)
(-0 -0 -0)
(-0 -0 -0)
(1.38778e-17 5.55112e-17 2.77556e-17)
(-0 5.55112e-17 1.38778e-17)
(3.46945e-18 -0 -2.77556e-17)
(-0 -0 -0)
(-0 -0 -1.38778e-17)
(-2.77556e-17 -0 1.38778e-17)
(-0 5.55112e-17 -0)
(-6.93889e-18 -0 -0)
(-0 -0 -1.38778e-17)
(2.77556e-17 -0 -0)
(-0 -0 -0)
(-6.93889e-18 -0 -1.38778e-17)
(-0 -0 -0)
(2.77556e-17 5.55112e-17 1.38778e-17)
(-0 -0 -0)
(-0 -0 -0)
(-0 2.77556e-17 1.38778e-17)
(-0 -0 -1.38778e-17)
(-0 -5.55112e-17 -0)
(6.93889e-18 -0 2.77556e-17)
(-0 -0 -0)
(-0 -2.77556e-17 1.38778e-17)
(-3.46945e-18 -5.55112e-17 -1.38778e-17)
(-0 -0 2.77556e-17)
(-1.38778e-17 -0 -0)
(-0 2.77556e-17 -2.77556e-17)
(-0 5.55112e-17 2.77556e-17)
(-0 -2.77556e-17 -2.77556e-17)
(-1.38778e-17 -0 -2.77556e-17)
(1.38778e-17 -2.77556e-17 1.38778e-17)
(3.46945e-18 -0 -0)
(-0 5.55112e-17 -0)
(-0 -0 -1.38778e-17)
(-0 2.77556e-17 -0)
(-0 -0 -0)
(6.93889e-18 -0 -0)
(-1.38778e-17 -0 -1.38778e-17)
(-0 -2.77556e-17 -0)
(-0 2.77556e-17 2.77556e-17)
(-6.93889e-18 -2.77556e-17 -2.77556e-17)
(-0 -0 -0)
(-0 -0 -0)
(-0 2.77556e-17 1.38778e-17)
(6.93889e-18 2.77556e-17 -0)
(-6.93889e-18 -0 -0)
(-1.38778e-17 -2.77556e-17 -1.38778e-17)
(3.46945e-18 -0 -0)
(-0 4.16334e-17 -1.38778e-17)
(-1.38778e-17 -1.38778e-17 -2.77556e-17)
(-1.38778e-17 -1.38778e-17 -0)
(-6.93889e-18 -0 -2.77556e-17)
(-6.93889e-18 -0 -0)
(-0 -1.38778e-17 -0)
(-0 -0 -0)
(-3.46945e-18 -0 -0)
(-6.93889e-18 -1.38778e-17 -5.55112e-17)
(-2.77556e-17 -1.38778e-17 -0)
(-0 -0 -0)
(-6.93889e-18 -0 -0)
(-0 -0 -0)
(1.38778e-17 -0 -0)
(1.38778e-17 -0 2.77556e-17)
(6.93889e-18 -0 -0)
(6.93889e-18 1.38778e-17 2.77556e-17)
(-0 6.93889e-18 -1.38778e-17)
(-1.38778e-17 -0 -1.38778e-17)
(-3.46945e-18 -1.38778e-17 -0)
(-0 -0 -2.77556e-17)
(-2.77556e-17 -6.93889e-18 -2.77556e-17)
(1.38778e-17 6.93889e-18 2.77556e-17)
(-0 -0 -0)
(-1.38778e-17 -6.93889e-18 -0)
(1.38778e-17 3.46945e-18 -0)
(-0 -0 -2.77556e-17)
(-3.46945e-18 -0 -0)
(-6.93889e-18 -1.73472e-18 -0)
(-0 -1.73472e-18 2.77556e-17)
(-1.38778e-17 -0 -1.38778e-17)
(-3.46945e-18 2.02064e-20 -0)
(1.38778e-17 5.24616e-19 2.77556e-17)
(-1.38778e-17 2.02361e-19 -2.77556e-17)
(2.77556e-17 -5.04911e-20 1.38778e-17)
(-6.93889e-18 -1.73472e-18 -1.38778e-17)
(6.93889e-18 1.73472e-18 -1.38778e-17)
(-0 -1.73472e-18 1.38778e-17)
(1.38778e-17 -1.73472e-18 1.38778e-17)
(-1.04083e-17 3.46945e-18 -2.77556e-17)
(-6.93889e-18 3.46945e-18 -4.16334e-17)
(-0 -0 -0)
(2.77556e-17 -0 -0)
(-0 -0 -0)
(6.93889e-18 -6.93889e-18 -1.38778e-17)
(-1.38778e-17 -6.93889e-18 1.38778e-17)
(-1.38778e-17 -0 -0)
(3.46945e-18 -0 2.77556e-17)
(6.93889e-18 6.93889e-18 -0)
(1.38778e-17 -0 -1.38778e-17)
(-0 -6.93889e-18 2.77556e-17)
(-0 1.38778e-17 -2.77556e-17)
(6.93889e-18 -0 1.38778e-17)
(1.38778e-17 -2.77556e-17 2.77556e-17)
(-1.38778e-17 -0 -1.38778e-17)
(-0 -0 -0)
(-0 -1.38778e-17 1.38778e-17)
(-0 -0 -2.77556e-17)
(-0 -1.38778e-17 1.38778e-17)
(-0 -0 -2.77556e-17)
(-0 2.77556e-17 -0)
(-0 -0 -2.77556e-17)
(-1.38778e-17 1.38778e-17 -1.38778e-17)
(-3.46945e-18 -0 -1.38778e-17)
(-1.38778e-17 -0 -0)
(-0 -1.38778e-17 -0)
(-0 -0 2.77556e-17)
(-3.46945e-18 -0 -1.38778e-17)
(-6.93889e-18 -0 -1.38778e-17)
(6.93889e-18 -1.38778e-17 -2.77556e-17)
(-0 -0 2.77556e-17)
(-0 -0 -0)
(-1.38778e-17 5.55112e-17 -4.16334e-17)
(-0 -0 -0)
(1.38778e-17 2.77556e-17 -1.38778e-17)
(-0 -0 -0)
(-6.93889e-18 -0 -0)
(-0 2.77556e-17 -2.77556e-17)
(-0 -0 -0)
(-6.93889e-18 -0 -0)
(-6.93889e-18 2.77556e-17 2.77556e-17)
(1.38778e-17 -2.77556e-17 1.38778e-17)
(-1.38778e-17 2.77556e-17 -1.38778e-17)
(-0 -0 -0)
(-0 -2.77556e-17 -1.38778e-17)
(-0 2.77556e-17 -2.77556e-17)
(-0 5.55112e-17 -2.77556e-17)
(3.46945e-18 -0 -0)
(-6.93889e-18 2.77556e-17 -2.77556e-17)
(1.38778e-17 -2.77556e-17 1.38778e-17)
(-0 2.77556e-17 -0)
(-2.02864e-19 2.77556e-17 -1.38778e-17)
(-0 2.77556e-17 -1.38778e-17)
(-0 5.55112e-17 -0)
(-1.38778e-17 -0 -0)
(-2.77556e-17 2.77556e-17 1.38778e-17)
(2.71051e-20 -5.55112e-17 5.55112e-17)
(-0 -5.55112e-17 1.38778e-17)
(-0 -2.77556e-17 2.77556e-17)
(-1.38778e-17 -0 -0)
(-2.77556e-17 5.55112e-17 -2.77556e-17)
(4.87044e-20 8.32667e-17 -0)
(-0 -0 5.55112e-17)
(-0 -0 2.77556e-17)
(-0 -5.55112e-17 -0)
(-0 -0 -0)
(2.78674e-19 -1.11022e-16 2.77556e-17)
(-3.46945e-18 2.77556e-17 -4.16334e-17)
(-0 -5.55112e-17 -0)
(1.38778e-17 -5.55112e-17 -1.38778e-17)
(-0 -0 -0)
(2.57074e-19 -5.55112e-17 -0)
(3.46945e-18 5.55112e-17 -0)
(-0 -0 -0)
(-0 5.55112e-17 2.77556e-17)
(-0 -0 -1.38778e-17)
(5.28549e-19 -0 -2.77556e-17)
(-0 5.55112e-17 -2.77556e-17)
(-0 -0 -0)
(-1.38778e-17 5.55112e-17 -2.77556e-17)
(-1.38778e-17 -0 -0)
(-3.26108e-20 -0 2.77556e-17)
(-0 5.55112e-17 2.77556e-17)
(-0 -0 -0)
(-0 -0 1.38778e-17)
(1.38778e-17 -0 1.38778e-17)
(-2.00323e-19 1.11022e-16 -0)
(-0 -0 -2.77556e-17)
(-6.93889e-18 -0 2.77556e-17)
(-0 -0 -1.38778e-17)
(-2.77556e-17 -0 -1.38778e-17)
(1.2282e-19 -0 -0)
(-3.46945e-18 -0 -1.38778e-17)
(-0 -5.55112e-17 -0)
(-0 -0 -0)
(-0 -0 -1.38778e-17)
(6.55604e-19 -0 -0)
(3.46945e-18 -5.55112e-17 2.77556e-17)
(6.93889e-18 -0 2.77556e-17)
(-2.77556e-17 5.55112e-17 -1.38778e-17)
(-2.77556e-17 -0 -0)
(8.21622e-20 -5.55112e-17 -0)
(-0 -0 -0)
(1.38778e-17 -0 2.77556e-17)
(-1.38778e-17 -0 -0)
(-0 5.55112e-17 1.38778e-17)
(-1.35525e-19 -0 -0)
(-6.93889e-18 1.11022e-16 -1.38778e-17)
(-6.93889e-18 1.66533e-16 -4.16334e-17)
(-0 -0 1.38778e-17)
(-1.38778e-17 -0 -1.38778e-17)
(-6.98379e-19 5.55112e-17 -0)
(-3.46945e-18 5.55112e-17 -2.77556e-17)
(6.93889e-18 -1.11022e-16 2.77556e-17)
(1.38778e-17 -5.55112e-17 1.38778e-17)
(-0 5.55112e-17 -0)
(4.44692e-21 -5.55112e-17 -0)
(-0 -5.55112e-17 -2.77556e-17)
(6.93889e-18 -0 -0)
(-0 -0 1.38778e-17)
(1.38778e-17 -5.55112e-17 2.77556e-17)
(2.63851e-19 -0 2.77556e-17)
(-0 -5.55112e-17 2.77556e-17)
(-0 -5.55112e-17 -2.77556e-17)
(6.93889e-18 5.55112e-17 -1.38778e-17)
(1.38778e-17 -0 1.38778e-17)
(4.08693e-20 1.11022e-16 -0)
(-6.93889e-18 -1.11022e-16 -0)
(-2.08167e-17 -0 -0)
(-0 -0 -0)
(-2.77556e-17 1.11022e-16 -1.38778e-17)
(3.81165e-21 -1.11022e-16 1.38778e-17)
(-3.46945e-18 -5.55112e-17 -2.77556e-17)
(6.93889e-18 -0 -0)
(-0 1.11022e-16 -0)
(1.38778e-17 -1.11022e-16 2.77556e-17)
(1.2409e-19 -0 2.77556e-17)
(-0 -1.11022e-16 -0)
(-0 -0 2.77556e-17)
(-0 -1.11022e-16 -0)
(-0 -5.55112e-17 -0)
(7.01767e-19 1.11022e-16 -1.38778e-17)
(-0 -0 1.38778e-17)
(-0 -0 -0)
(2.77556e-17 -5.55112e-17 -0)
(-0 -1.11022e-16 -1.38778e-17)
(1.32984e-19 -0 2.77556e-17)
(-0 -0 2.77556e-17)
(-0 -0 1.38778e-17)
(1.38778e-17 -0 1.38778e-17)
(2.77556e-17 -5.55112e-17 -0)
(-4.38763e-19 -0 -2.77556e-17)
(3.46945e-18 -0 -0)
(-1.38778e-17 1.11022e-16 -0)
(6.93889e-18 -0 -0)
(-0 -0 -0)
(1.25361e-19 -1.11022e-16 2.77556e-17)
(-3.46945e-18 1.11022e-16 -1.38778e-17)
(-1.38778e-17 1.11022e-16 -1.38778e-17)
(-0 1.11022e-16 -0)
(-1.38778e-17 5.55112e-17 -4.16334e-17)
(5.42101e-20 -1.11022e-16 5.55112e-17)
(3.46945e-18 -1.11022e-16 -0)
(-0 -0 -0)
(-0 -1.11022e-16 -0)
(-0 -5.55112e-17 1.38778e-17)
(-0 -5.55112e-17 -0)
(-0 1.11022e-16 1.38778e-17)
(-0 -0 6.93889e-18)
(-0 -5.55112e-17 3.46945e-18)
(1.38778e-17 5.55112e-17 5.69206e-19)
(-0 -0 2.77556e-17)
(-0 5.55112e-17 -0)
(-0 -0 6.93889e-18)
(-2.77556e-17 -0 -6.93889e-18)
(-0 -5.55112e-17 -4.13352e-19)
(-0 -0 -0)
(-0 -0 -0)
(-1.38778e-17 -0 -6.93889e-18)
(-0 -5.55112e-17 -3.46945e-18)
(-2.77556e-17 -0 4.74338e-20)
(-0 -0 -0)
(1.38778e-17 -0 1.38778e-17)
(4.16334e-17 5.55112e-17 1.38778e-17)
(-0 -5.55112e-17 -0)
(-2.77556e-17 -0 -5.69206e-19)
(-4.16334e-17 -5.55112e-17 -1.38778e-17)
(-1.38778e-17 -2.77556e-17 -6.93889e-18)
(-0 -0 -0)
(-2.77556e-17 -0 -0)
(-0 -0 3.5406e-19)
(-0 -0 -0)
(-0 -0 -1.38778e-17)
(-0 2.77556e-17 -0)
(-0 -0 -0)
(-2.77556e-17 -0 2.59192e-19)
(-1.38778e-17 -0 -0)
(-0 -0 -0)
(-2.77556e-17 5.55112e-17 -0)
(-0 2.77556e-17 -0)
(-0 -0 4.57398e-20)
(1.38778e-17 2.77556e-17 1.38778e-17)
(-0 -0 -0)
(-1.38778e-17 -5.55112e-17 -6.93889e-18)
(-4.16334e-17 2.77556e-17 -0)
(-0 -0 4.89585e-19)
(-1.38778e-17 -0 -0)
(-0 -5.55112e-17 -1.38778e-17)
(-0 2.77556e-17 1.38778e-17)
(-2.77556e-17 -0 -0)
(-0 -0 2.32087e-19)
(-0 -0 1.38778e-17)
(-1.38778e-17 -0 -0)
(-2.77556e-17 -0 -0)
(-1.38778e-17 -2.77556e-17 -0)
(-0 -0 4.48927e-20)
(1.38778e-17 2.77556e-17 1.38778e-17)
(-2.77556e-17 -2.77556e-17 -0)
(-1.38778e-17 -0 -0)
(-0 5.55112e-17 -0)
(2.77556e-17 -0 -2.9392e-19)
(-2.77556e-17 -0 -1.38778e-17)
(-1.38778e-17 -0 -0)
(-0 -0 6.93889e-18)
(-1.38778e-17 -0 -0)
(-0 -0 6.14946e-19)
(-0 -0 -0)
(-0 -0 -1.38778e-17)
(2.77556e-17 -0 -0)
(-0 -0 -0)
(-0 -2.77556e-17 -8.71173e-19)
(-0 1.38778e-17 1.38778e-17)
(-0 2.77556e-17 -0)
(-0 -2.77556e-17 -6.93889e-18)
(-0 -0 -0)
(-0 -0 2.98473e-19)
(-0 -2.77556e-17 -0)
(-0 -1.38778e-17 -6.93889e-18)
(-0 2.77556e-17 6.93889e-18)
(-2.77556e-17 -1.38778e-17 -3.46945e-18)
(-0 -2.77556e-17 -4.58986e-19)
(-1.38778e-17 -0 -0)
(-1.38778e-17 -2.77556e-17 -6.93889e-18)
(-2.77556e-17 -0 -0)
(-0 -0 -0)
(-0 -0 -1.10961e-19)
(1.38778e-17 2.77556e-17 -1.38778e-17)
(2.77556e-17 -0 -0)
(-0 -1.38778e-17 -0)
(-1.38778e-17 1.38778e-17 -3.46945e-18)
(-2.77556e-17 -0 3.83706e-19)
(-0 -1.38778e-17 -0)
(-1.38778e-17 -0 -0)
(-0 -0 6.93889e-18)
(1.38778e-17 1.38778e-17 -0)
(-0 -0 -1.47384e-19)
(1.38778e-17 6.93889e-18 1.38778e-17)
(-0 -0 -1.38778e-17)
(1.38778e-17 6.93889e-18 6.93889e-18)
(-2.77556e-17 -1.38778e-17 -3.46945e-18)
(-4.16334e-17 -0 -2.57286e-19)
(-0 -1.38778e-17 -0)
(-0 -6.93889e-18 -1.38778e-17)
(-0 -0 -0)
(-2.77556e-17 6.93889e-18 3.46945e-18)
(-2.77556e-17 -6.93889e-18 2.06464e-20)
(-0 -0 -0)
(-1.38778e-17 -6.93889e-18 -0)
(-2.77556e-17 -0 -0)
(2.77556e-17 3.46945e-18 -0)
(4.16334e-17 3.46945e-18 3.95247e-19)
(-0 -0 -1.38778e-17)
(-1.38778e-17 1.73472e-18 -0)
(-0 1.73472e-18 -0)
(-5.55112e-17 -0 -0)
(2.77556e-17 -0 -5.6963e-20)
(-1.38778e-17 2.72056e-19 -1.38778e-17)
(-0 4.13656e-20 -0)
(1.38778e-17 3.37182e-19 6.93889e-18)
(-0 -3.24528e-19 -3.46945e-18)
(-2.77556e-17 -2.61687e-20 4.31987e-20)
(-1.38778e-17 3.46945e-18 -1.38778e-17)
(2.77556e-17 -3.46945e-18 2.77556e-17)
(-5.55112e-17 1.73472e-18 -6.93889e-18)
(-2.77556e-17 -0 -3.46945e-18)
(2.77556e-17 -1.73472e-18 6.50098e-20)
(-0 -6.93889e-18 1.38778e-17)
(-1.38778e-17 -0 -0)
(-0 6.93889e-18 -0)
(2.77556e-17 -6.93889e-18 3.46945e-18)
(1.38778e-17 -3.46945e-18 -8.25857e-21)
(-0 -0 -0)
(-2.77556e-17 -6.93889e-18 -0)
(-2.77556e-17 -0 -0)
(-0 -6.93889e-18 3.46945e-18)
(4.16334e-17 -1.38778e-17 5.8657e-20)
(-1.38778e-17 1.38778e-17 -1.38778e-17)
(-2.77556e-17 6.93889e-18 1.38778e-17)
(-2.77556e-17 6.93889e-18 -1.38778e-17)
(2.77556e-17 -6.93889e-18 -0)
(2.77556e-17 -0 -7.19978e-21)
(-2.77556e-17 -0 2.77556e-17)
(-0 -0 -0)
(-0 -0 -0)
(-2.77556e-17 1.38778e-17 -3.46945e-18)
(-0 -0 -2.32934e-21)
(-4.16334e-17 -0 -2.77556e-17)
(-0 -2.77556e-17 6.93889e-18)
(-2.77556e-17 1.38778e-17 6.93889e-18)
(1.38778e-17 -0 3.46945e-18)
(2.77556e-17 -0 8.17599e-19)
(-1.38778e-17 -0 -0)
(1.38778e-17 -0 -1.38778e-17)
(-2.77556e-17 1.38778e-17 -6.93889e-18)
(-0 -0 -0)
(-1.38778e-17 -0 -2.39922e-19)
(4.16334e-17 -0 2.77556e-17)
(-0 -0 -0)
(-0 4.16334e-17 -1.38778e-17)
(2.77556e-17 -0 3.46945e-18)
(-0 2.77556e-17 -1.19855e-19)
(-0 -0 -0)
(-1.38778e-17 2.77556e-17 -0)
(-0 -0 -6.93889e-18)
(2.77556e-17 -0 6.93889e-18)
(-0 -0 2.46275e-19)
(-1.38778e-17 2.77556e-17 -1.38778e-17)
(4.16334e-17 2.77556e-17 -0)
(-1.38778e-17 2.77556e-17 -6.93889e-18)
(2.77556e-17 2.77556e-17 -0)
(-0 -0 -9.40207e-20)
(-0 -0 1.38778e-17)
(-0 -2.77556e-17 -1.38778e-17)
(-0 -0 -0)
(-0 -2.77556e-17 3.46945e-18)
(2.77556e-17 2.77556e-17 -5.5883e-19)
(1.38778e-17 -0 -0)
(1.38778e-17 -2.77556e-17 6.93889e-18)
(-5.55112e-17 5.55112e-17 -6.93889e-18)
(-0 -0 -0)
(-2.77556e-17 2.77556e-17 6.01393e-20)
(1.38778e-17 -2.77556e-17 1.38778e-17)
(-2.77556e-17 -0 -1.38778e-17)
(-0 -0 -0)
(-0 -2.77556e-17 -0)
(2.77556e-17 -0 6.64921e-20)
(1.38778e-17 -2.77556e-17 -1.38778e-17)
(2.77556e-17 -2.77556e-17 6.93889e-18)
(-0 -2.77556e-17 6.93889e-18)
(-2.77556e-17 -2.77556e-17 3.46945e-18)
(-0 -2.77556e-17 -8.19504e-20)
(2.77556e-17 -2.77556e-17 1.38778e-17)
(2.77556e-17 -2.77556e-17 1.38778e-17)
(2.77556e-17 -8.32667e-17 6.93889e-18)
(-2.77556e-17 5.55112e-17 -3.46945e-18)
(2.77556e-17 5.55112e-17 -1.41243e-19)
(-2.77556e-17 -2.77556e-17 -0)
(-0 -2.77556e-17 -0)
(2.77556e-17 -0 6.93889e-18)
(-0 -0 -0)
(-0 -2.77556e-17 8.11034e-20)
(-0 -0 -0)
(-0 -0 -1.38778e-17)
(2.77556e-17 -5.55112e-17 6.93889e-18)
(-0 2.77556e-17 -0)
(2.77556e-17 -5.55112e-17 1.38778e-17)
(-0 -0 1.38778e-17)
(-0 -0 -0)
(4.16334e-17 -0 3.46945e-18)
(-0 -0 -0)
(-1.38778e-17 -0 -0)
(1.38778e-17 -5.55112e-17 6.93889e-18)
(-0 5.55112e-17 -3.46945e-18)
(-4.16334e-17 5.55112e-17 -2.77556e-17)
(-0 -5.55112e-17 1.38778e-17)
(-0 -5.55112e-17 -0)
(-0 5.55112e-17 -6.93889e-18)
(-0 -0 -0)
(1.38778e-17 -5.55112e-17 1.38778e-17)
(-0 -5.55112e-17 -0)
(-0 -0 -0)
(2.77556e-17 -0 1.38778e-17)
(-0 -5.55112e-17 6.93889e-18)
(-0 -5.55112e-17 6.93889e-18)
(-0 -5.55112e-17 3.46945e-18)
(-0 -0 -0)
(-1.38778e-17 5.55112e-17 -6.93889e-18)
(-0 -0 -0)
(-0 5.55112e-17 -0)
(-0 -0 1.38778e-17)
(-0 -0 1.38778e-17)
(-0 -5.55112e-17 -0)
(-0 -1.11022e-16 -0)
(-1.38778e-17 -5.55112e-17 1.38778e-17)
(-0 -0 -0)
(-0 -0 -0)
(-2.77556e-17 -0 6.93889e-18)
(-1.38778e-17 -5.55112e-17 -0)
(-0 -0 -0)
(-1.38778e-17 5.55112e-17 -1.38778e-17)
(-0 -1.11022e-16 -0)
(-0 5.55112e-17 -1.38778e-17)
(-1.38778e-17 5.55112e-17 -1.38778e-17)
(-0 1.11022e-16 6.93889e-18)
(1.38778e-17 -5.55112e-17 3.46945e-18)
(-1.38778e-17 -0 -0)
(-0 -0 -0)
(-0 -0 -0)
(1.38778e-17 -0 -0)
(-2.77556e-17 5.55112e-17 -1.38778e-17)
(-0 -5.55112e-17 1.38778e-17)
(-2.77556e-17 -0 -1.38778e-17)
(1.38778e-17 -1.11022e-16 -0)
(-1.38778e-17 5.55112e-17 -2.77556e-17)
(-0 -0 -6.93889e-18)
(-0 1.11022e-16 -0)
(-0 5.55112e-17 6.93889e-18)
(1.38778e-17 -5.55112e-17 1.38778e-17)
(-0 -0 -0)
(-1.38778e-17 -5.55112e-17 6.93889e-18)
(-0 -0 -0)
(1.38778e-17 -0 2.77556e-17)
(-0 -0 -0)
(-2.77556e-17 5.55112e-17 -0)
(-0 -0 -0)
(-1.38778e-17 -0 -0)
(-0 5.55112e-17 -6.93889e-18)
(-0 -0 -0)
(-1.38778e-17 -0 -3.46945e-18)
(-1.38778e-17 -0 -0)
(-4.16334e-17 -0 -6.93889e-18)
(-0 -0 -0)
(-0 -0 -0)
(-1.38778e-17 -0 -0)
(-4.16334e-17 1.11022e-16 -1.38778e-17)
(-0 -5.55112e-17 1.38778e-17)
(-0 -0 3.46945e-18)
(-2.77556e-17 -0 -1.38778e-17)
(-0 -0 -1.38778e-17)
(-2.77556e-17 -1.11022e-16 -0)
(-2.77556e-17 1.11022e-16 -3.46945e-18)
(-1.38778e-17 1.11022e-16 -1.38778e-17)
(1.38778e-17 -1.11022e-16 -0)
(-0 -1.11022e-16 1.38778e-17)
(2.77556e-17 -1.11022e-16 6.93889e-18)
(-0 -0 -7.0939e-20)
(2.77556e-17 -5.55112e-17 -6.20452e-20)
(-0 -5.55112e-17 5.49513e-20)
(-0 5.55112e-17 1.07256e-19)
(2.77556e-17 -5.55112e-17 -1.73324e-19)
(-2.77556e-17 -5.55112e-17 -2.19117e-19)
(-0 5.55112e-17 -3.77936e-19)
(-0 -0 2.26158e-19)
(2.77556e-17 -5.55112e-17 4.54751e-19)
(-5.28549e-19 -0 -2.77556e-17)
(-6.12405e-19 1.38778e-17 -0)
(-1.63477e-19 -0 -0)
(-2.2277e-19 -0 -0)
(-7.05578e-19 -0 -0)
(1.06938e-19 -3.46945e-18 -2.77556e-17)
(6.24899e-19 2.75815e-20 1.38778e-17)
(4.87044e-20 -0 -0)
(5.93135e-19 -0 -0)
(7.53859e-20 6.93889e-18 -2.77556e-17)
(-5.98641e-19 1.38778e-17 -0)
(-2.92862e-19 1.38778e-17 -0)
(5.2516e-20 -0 -1.38778e-17)
(-1.36372e-19 -0 -0)
(3.26955e-19 -0 -1.38778e-17)
(2.18958e-19 -0 -0)
(-3.21873e-19 -2.77556e-17 1.38778e-17)
(1.49501e-19 -0 -2.77556e-17)
(4.27116e-19 -0 -0)
(-5.56501e-19 -0 -1.38778e-17)
(7.96211e-20 -0 -0)
(2.77556e-17 -5.55112e-17 -3.38813e-19)
(2.77556e-17 -0 -0)
(-2.77556e-17 5.55112e-17 -0)
(1.38778e-17 -5.55112e-17 -6.93889e-18)
(-1.38778e-17 -0 2.77556e-17)
(-0 -5.55112e-17 6.7085e-19)
(2.77556e-17 -0 -0)
(-0 -0 6.93889e-18)
(1.38778e-17 -0 -0)
(2.77556e-17 -5.55112e-17 -0)
(-0 -0 -5.91229e-19)
(-2.77556e-17 -0 3.46945e-18)
(-2.77556e-17 -0 -0)
(2.77556e-17 -0 -0)
(-2.77556e-17 5.55112e-17 1.38778e-17)
(2.77556e-17 -5.55112e-17 -1.17367e-19)
(2.77556e-17 -5.55112e-17 -0)
(-0 -0 6.93889e-18)
(-0 -0 1.38778e-17)
(1.38778e-17 -0 -1.38778e-17)
(-2.77556e-17 -0 -2.43098e-19)
(-0 -0 3.46945e-18)
(-0 -0 1.38778e-17)
(-0 -0 -0)
(-0 5.55112e-17 -0)
(2.77556e-17 -0 1.0842e-19)
(-2.77556e-17 5.55112e-17 -3.46945e-18)
(-0 -0 -0)
(-2.77556e-17 2.77556e-17 -0)
(-0 -2.77556e-17 2.77556e-17)
(2.77556e-17 -2.77556e-17 1.28749e-19)
(2.77556e-17 -5.55112e-17 -6.93889e-18)
(-2.77556e-17 5.55112e-17 6.93889e-18)
(-1.38778e-17 -0 -0)
(-0 -2.77556e-17 1.38778e-17)
(2.77556e-17 -0 6.03087e-19)
(1.38778e-17 -0 -3.46945e-18)
(-2.77556e-17 -2.77556e-17 -0)
(-0 2.77556e-17 -0)
(-0 -0 -0)
(-0 -0 -3.45589e-19)
(2.77556e-17 -0 3.46945e-18)
(1.38778e-17 -2.77556e-17 -0)
(-1.38778e-17 5.55112e-17 2.08167e-17)
(1.38778e-17 -0 -0)
(2.77556e-17 2.77556e-17 4.31987e-19)
(1.38778e-17 -0 -3.46945e-18)
(-2.77556e-17 2.77556e-17 -6.93889e-18)
(-0 -2.77556e-17 -0)
(-0 -0 -0)
(2.77556e-17 -0 8.97855e-20)
(-5.55112e-17 2.77556e-17 3.46945e-18)
(2.77556e-17 -2.77556e-17 6.93889e-18)
(-1.38778e-17 -0 -0)
(-0 -0 -0)
(-0 -0 -5.26854e-19)
(2.77556e-17 -0 -3.46945e-18)
(-1.38778e-17 2.77556e-17 -0)
(-0 -2.77556e-17 -0)
(1.38778e-17 -2.77556e-17 -0)
(-0 -0 -7.28448e-20)
(-4.16334e-17 2.77556e-17 3.46945e-18)
(-0 -2.77556e-17 -0)
(-1.38778e-17 -0 -0)
(-2.77556e-17 -2.77556e-17 1.38778e-17)
(-0 2.77556e-17 -6.20028e-19)
(2.77556e-17 -0 -0)
(1.38778e-17 2.77556e-17 -6.93889e-18)
(2.77556e-17 -0 -1.38778e-17)
(-0 2.77556e-17 -0)
(-0 -1.38778e-17 1.33831e-19)
(-0 -1.38778e-17 -0)
(-2.77556e-17 2.77556e-17 6.93889e-18)
(-0 -2.77556e-17 -0)
(-0 1.38778e-17 -0)
(-1.38778e-17 -0 -1.01644e-20)
(-2.77556e-17 -0 3.46945e-18)
(-1.38778e-17 -0 -0)
(1.38778e-17 -2.77556e-17 -0)
(1.38778e-17 1.38778e-17 -1.38778e-17)
(2.77556e-17 -0 1.7703e-19)
(2.77556e-17 -2.77556e-17 -3.46945e-18)
(-0 1.38778e-17 -0)
(-0 1.38778e-17 -0)
(-0 -0 1.38778e-17)
(5.55112e-17 -2.77556e-17 2.30393e-19)
(-0 -0 6.93889e-18)
(-0 1.38778e-17 6.93889e-18)
(-1.38778e-17 -0 -1.38778e-17)
(1.38778e-17 -0 -0)
(-2.77556e-17 -6.93889e-18 -3.91329e-19)
(-0 -1.38778e-17 -0)
(-1.38778e-17 -0 6.93889e-18)
(-1.38778e-17 1.38778e-17 -0)
(-0 1.38778e-17 1.38778e-17)
(2.77556e-17 -0 -3.10014e-19)
(2.77556e-17 -0 -3.46945e-18)
(2.77556e-17 -6.93889e-18 -6.93889e-18)
(-5.55112e-17 6.93889e-18 -0)
(-0 -0 -0)
(4.16334e-17 -3.46945e-18 6.24263e-19)
(-0 -0 -0)
(-0 3.46945e-18 -0)
(1.38778e-17 3.46945e-18 -0)
(1.38778e-17 -3.46945e-18 -0)
(-1.38778e-17 1.73472e-18 3.46945e-18)
(-0 -1.73472e-18 1.38778e-17)
(-5.55112e-17 5.20417e-18 2.08167e-17)
(-2.77556e-17 -0 -0)
(-2.77556e-17 -4.0019e-20 -0)
(-0 6.87718e-21 -0)
(1.38778e-17 2.24189e-19 -0)
(2.77556e-17 -1.69155e-19 -2.77556e-17)
(-0 -1.73472e-18 3.46945e-18)
(2.77556e-17 -0 -1.38778e-17)
(4.16334e-17 3.46945e-18 -2.08167e-17)
(1.38778e-17 -0 -0)
(-1.38778e-17 3.46945e-18 -0)
(-2.77556e-17 -0 1.38778e-17)
(-1.38778e-17 -3.46945e-18 6.93889e-18)
(-1.38778e-17 3.46945e-18 -0)
(-0 -0 -0)
(-1.38778e-17 -0 1.38778e-17)
(-0 -0 -1.38778e-17)
(1.38778e-17 -0 -1.38778e-17)
(2.77556e-17 1.38778e-17 -3.46945e-18)
(-0 1.38778e-17 6.93889e-18)
(2.77556e-17 6.93889e-18 -1.38778e-17)
(1.38778e-17 6.93889e-18 -2.77556e-17)
(-2.77556e-17 -0 -0)
(-0 -0 6.93889e-18)
(2.77556e-17 -0 -0)
(-0 -0 -0)
(-2.77556e-17 -0 3.46945e-18)
(-0 -2.77556e-17 -0)
(-0 -0 -0)
(1.38778e-17 -0 -0)
(1.38778e-17 1.38778e-17 -6.93889e-18)
(-0 -1.38778e-17 -0)
(-0 -0 -0)
(1.38778e-17 1.38778e-17 -1.38778e-17)
(2.77556e-17 -0 3.46945e-18)
(-0 -0 -0)
(-1.38778e-17 1.38778e-17 -1.38778e-17)
(-0 2.77556e-17 -0)
(-0 -0 3.46945e-18)
(-0 1.38778e-17 -6.93889e-18)
(-0 -2.77556e-17 1.38778e-17)
(-0 -0 -2.77556e-17)
(-1.38778e-17 -5.55112e-17 3.46945e-18)
(-1.38778e-17 -0 -0)
(-1.38778e-17 -0 -0)
(-0 -0 -0)
(-2.77556e-17 -0 -3.46945e-18)
(1.38778e-17 -2.77556e-17 -0)
(-1.38778e-17 -0 -0)
(-1.38778e-17 -0 1.38778e-17)
(-1.38778e-17 -0 3.46945e-18)
(-2.77556e-17 -2.77556e-17 1.38778e-17)
(-0 2.77556e-17 -2.77556e-17)
(1.38778e-17 2.77556e-17 -0)
(-0 -0 -6.93889e-18)
(-0 5.55112e-17 -0)
(-1.38778e-17 -0 -0)
(-2.77556e-17 -5.55112e-17 1.38778e-17)
(-0 -0 -0)
(-2.77556e-17 -5.55112e-17 -0)
(-1.38778e-17 -0 -1.38778e-17)
(-0 5.55112e-17 -1.38778e-17)
(2.77556e-17 5.55112e-17 -3.46945e-18)
(-0 2.77556e-17 -6.93889e-18)
(1.38778e-17 5.55112e-17 -1.38778e-17)
(-0 -0 -1.38778e-17)
(-2.77556e-17 -0 6.93889e-18)
(-0 -8.32667e-17 -0)
(-2.77556e-17 -5.55112e-17 1.38778e-17)
(-2.77556e-17 2.77556e-17 -0)
(1.38778e-17 8.32667e-17 -3.46945e-18)
(-0 -0 -0)
(-0 2.77556e-17 -0)
(-1.38778e-17 -5.55112e-17 1.38778e-17)
(-0 -5.55112e-17 -6.93889e-18)
(-2.77556e-17 -5.55112e-17 -0)
(-0 -0 -0)
(-0 -5.55112e-17 2.77556e-17)
(2.77556e-17 5.55112e-17 -0)
(1.38778e-17 1.11022e-16 -0)
(-1.38778e-17 -5.55112e-17 2.08167e-17)
(-2.77556e-17 -0 -0)
(-2.77556e-17 -5.55112e-17 -0)
(2.77556e-17 -0 -0)
(-1.38778e-17 -5.55112e-17 1.38778e-17)
(-2.77556e-17 -0 1.38778e-17)
(-2.77556e-17 -0 -0)
(-2.77556e-17 -0 -0)
(1.38778e-17 -0 -0)
(-0 -5.55112e-17 1.38778e-17)
(2.77556e-17 5.55112e-17 -3.46945e-18)
(1.38778e-17 -5.55112e-17 6.93889e-18)
(2.77556e-17 -0 -0)
(1.38778e-17 -0 -0)
(2.77556e-17 5.55112e-17 -6.93889e-18)
(-1.38778e-17 -0 -6.93889e-18)
(1.38778e-17 -5.55112e-17 -1.38778e-17)
(1.38778e-17 5.55112e-17 -1.38778e-17)
(-2.77556e-17 -0 3.46945e-18)
(5.55112e-17 -0 -1.38778e-17)
(1.38778e-17 -0 1.38778e-17)
(-1.38778e-17 -1.11022e-16 1.38778e-17)
(-0 5.55112e-17 -0)
(-0 -5.55112e-17 -0)
(-1.38778e-17 -0 2.08167e-17)
(1.38778e-17 1.11022e-16 -0)
(2.77556e-17 5.55112e-17 -6.93889e-18)
(-5.55112e-17 -5.55112e-17 6.93889e-18)
(2.77556e-17 5.55112e-17 -6.93889e-18)
(1.38778e-17 5.55112e-17 -1.38778e-17)
(-2.77556e-17 -5.55112e-17 3.46945e-18)
(-0 -0 6.93889e-18)
(-0 5.55112e-17 1.38778e-17)
(-1.38778e-17 -5.55112e-17 1.38778e-17)
(-0 -0 -0)
(-2.77556e-17 5.55112e-17 -0)
(-0 -5.55112e-17 -0)
(-0 -1.11022e-16 -0)
(-0 -0 -0)
(2.77556e-17 5.55112e-17 -6.93889e-18)
(-1.38778e-17 -5.55112e-17 1.38778e-17)
(-1.38778e-17 -1.11022e-16 4.16334e-17)
(-0 -0 -0)
(2.77556e-17 1.11022e-16 -1.38778e-17)
(-1.38778e-17 -0 1.38778e-17)
(1.38778e-17 5.55112e-17 -0)
(2.77556e-17 5.55112e-17 -0)
(-0 -0 -0)
(-1.38778e-17 -5.55112e-17 -1.38778e-17)
(-0 -5.55112e-17 -0)
(-0 5.55112e-17 -0)
(2.77556e-17 1.11022e-16 -6.93889e-18)
(-4.16334e-17 -1.66533e-16 2.08167e-17)
(1.38778e-17 -0 -0)
(2.77556e-17 -0 -0)
(-2.77556e-17 -0 6.93889e-18)
(-0 -1.11022e-16 1.38778e-17)
(-1.38778e-17 -0 -0)
(1.38778e-17 -0 -0)
(-0 1.11022e-16 -0)
(2.77556e-17 -0 -1.38778e-17)
(-2.77556e-17 -5.55112e-17 1.38778e-17)
(-0 -0 -0)
(-1.38778e-17 1.11022e-16 6.93889e-18)
(-0 -1.11022e-16 -0)
(-2.77556e-17 -0 -0)
(-0 -0 6.93889e-18)
(-0 -0 1.38778e-17)
(1.38778e-17 -0 2.77556e-17)
(-0 -0 -0)
(-0 -0 6.93889e-18)
(-0 -0 -0)
(1.38778e-17 -0 -1.38778e-17)
(-0 -5.55112e-17 2.77556e-17)
(-0 -0 4.16334e-17)
(6.93889e-18 -0 -1.38778e-17)
(-1.38778e-17 5.55112e-17 -2.77556e-17)
(-6.93889e-18 5.55112e-17 1.38778e-17)
(5.42101e-19 -0 -0)
(-1.38778e-17 5.55112e-17 1.38778e-17)
(-6.93889e-18 -0 2.77556e-17)
(1.38778e-17 -5.55112e-17 -1.38778e-17)
(3.46945e-18 -0 -0)
(6.77626e-20 -0 -0)
(-0 -0 -0)
(-0 5.55112e-17 -1.38778e-17)
(6.93889e-18 -0 -0)
(-0 -0 -2.77556e-17)
(-9.48677e-20 -0 -0)
(-0 -5.55112e-17 -0)
(-0 -0 -0)
(-0 5.55112e-17 -0)
(-3.46945e-18 -0 -0)
(-3.47284e-19 -0 -0)
(-1.38778e-17 -0 -0)
(-6.93889e-18 -0 2.77556e-17)
(-6.93889e-18 2.77556e-17 2.77556e-17)
(-0 5.55112e-17 -2.77556e-17)
(-3.38813e-21 2.77556e-17 -2.77556e-17)
(-0 -2.77556e-17 -1.38778e-17)
(-0 -5.55112e-17 1.38778e-17)
(-6.93889e-18 5.55112e-17 2.77556e-17)
(-0 -0 2.77556e-17)
(-1.66018e-19 2.77556e-17 1.38778e-17)
(-0 -0 -4.16334e-17)
(-6.93889e-18 2.77556e-17 1.38778e-17)
(6.93889e-18 -2.77556e-17 -0)
(-0 2.77556e-17 -0)
(-1.98206e-19 -5.55112e-17 -0)
(1.38778e-17 -5.55112e-17 -2.77556e-17)
(-1.38778e-17 -0 1.38778e-17)
(-1.38778e-17 -2.77556e-17 1.38778e-17)
(-0 -0 -0)
(-1.10114e-19 -0 -0)
(-0 -0 -0)
(-0 -0 -0)
(-0 -2.77556e-17 -0)
(-3.46945e-18 -0 1.38778e-17)
(1.28749e-19 2.77556e-17 -2.77556e-17)
(-0 -0 1.38778e-17)
(1.38778e-17 -2.77556e-17 1.38778e-17)
(-0 -0 -0)
(-0 5.55112e-17 -2.77556e-17)
(-8.1654e-19 -0 -0)
(-0 -0 -0)
(-1.38778e-17 2.77556e-17 -0)
(-0 -0 -2.77556e-17)
(-0 -0 -0)
(-1.40777e-18 5.55112e-17 2.77556e-17)
(1.38778e-17 -2.77556e-17 -1.38778e-17)
(-1.38778e-17 5.55112e-17 2.77556e-17)
(-6.93889e-18 2.77556e-17 2.77556e-17)
(-0 -0 -0)
(-4.37069e-19 -0 2.77556e-17)
(2.77556e-17 -0 -0)
(-1.38778e-17 -0 2.77556e-17)
(-0 -0 -0)
(-0 -2.77556e-17 -2.77556e-17)
(-3.28649e-19 -0 -0)
(-1.38778e-17 2.77556e-17 -0)
(-0 -2.77556e-17 -0)
(-0 -0 -0)
(-0 -0 -2.77556e-17)
(3.38813e-20 2.77556e-17 2.77556e-17)
(1.38778e-17 -2.77556e-17 -0)
(-0 -4.16334e-17 -2.77556e-17)
(-0 -0 -0)
(-0 1.38778e-17 -0)
(-2.03288e-19 -1.38778e-17 -0)
(-1.38778e-17 -1.38778e-17 -0)
(-0 -0 -0)
(-6.93889e-18 1.38778e-17 2.77556e-17)
(-0 -0 -0)
(3.6253e-19 -0 -0)
(-0 -1.38778e-17 -1.38778e-17)
(1.38778e-17 -1.38778e-17 -1.38778e-17)
(-6.93889e-18 -0 -0)
(-0 -1.38778e-17 -0)
(-0 -0 1.38778e-17)
(1.38778e-17 -0 -0)
(-0 -0 -0)
(-0 -2.77556e-17 -0)
(-0 -1.38778e-17 -0)
(-1.38778e-17 1.38778e-17 -0)
(1.38778e-17 -6.93889e-18 -2.77556e-17)
(3.46945e-18 -1.38778e-17 -1.38778e-17)
(-0 -6.93889e-18 -1.38778e-17)
(6.93889e-18 -6.93889e-18 -0)
(-0 -0 -0)
(-6.93889e-18 1.38778e-17 4.16334e-17)
(-0 3.46945e-18 -0)
(-0 -3.46945e-18 -0)
(-1.38778e-17 3.46945e-18 1.38778e-17)
(-0 -0 -2.77556e-17)
(-1.38778e-17 -1.73472e-18 -0)
(1.38778e-17 -0 1.38778e-17)
(-0 -0 -0)
(-1.04083e-17 6.93889e-18 5.55112e-17)
(1.38778e-17 -9.88977e-20 -2.77556e-17)
(-0 -6.21742e-20 -0)
(6.93889e-18 -2.02859e-19 -5.55112e-17)
(-3.46945e-18 -1.52406e-19 -0)
(-0 -0 -0)
(-1.38778e-17 -1.73472e-18 2.77556e-17)
(-6.93889e-18 -1.73472e-18 2.77556e-17)
(3.46945e-18 3.46945e-18 -2.77556e-17)
(1.38778e-17 3.46945e-18 2.77556e-17)
(-0 -0 -0)
(6.93889e-18 6.93889e-18 -1.38778e-17)
(-0 -0 -2.77556e-17)
(-0 -6.93889e-18 -0)
(-0 -6.93889e-18 -0)
(6.93889e-18 6.93889e-18 -1.38778e-17)
(3.46945e-18 6.93889e-18 -0)
(1.38778e-17 -0 -0)
(6.93889e-18 -0 -2.77556e-17)
(6.93889e-18 1.38778e-17 -2.77556e-17)
(-3.46945e-18 -1.38778e-17 -0)
(-1.38778e-17 1.38778e-17 -1.38778e-17)
(-1.38778e-17 -1.38778e-17 -0)
(-0 -0 -0)
(-3.46945e-18 -0 1.38778e-17)
(2.77556e-17 1.38778e-17 -1.38778e-17)
(-1.38778e-17 -1.38778e-17 4.16334e-17)
(6.93889e-18 -1.38778e-17 -2.77556e-17)
(6.93889e-18 1.38778e-17 -1.38778e-17)
(-0 -0 -0)
(-0 -0 -1.38778e-17)
(-0 -0 -0)
(-0 -0 -2.77556e-17)
(-0 2.77556e-17 -0)
(-6.93889e-18 -1.38778e-17 -1.38778e-17)
(-0 -1.38778e-17 -0)
(-0 2.77556e-17 -0)
(-0 -0 1.38778e-17)
(-1.38778e-17 -2.77556e-17 4.16334e-17)
(-6.93889e-18 -0 -0)
(3.46945e-18 -2.77556e-17 -0)
(1.38778e-17 -2.77556e-17 -1.38778e-17)
(-0 -0 -1.38778e-17)
(6.93889e-18 2.77556e-17 -1.38778e-17)
(-0 -2.77556e-17 -0)
(-0 -2.77556e-17 -0)
(-0 -0 -0)
(-6.93889e-18 -2.77556e-17 -0)
(6.93889e-18 -2.77556e-17 -1.38778e-17)
(1.38778e-17 2.77556e-17 -0)
(-0 2.77556e-17 -2.77556e-17)
(-1.38778e-17 -0 -0)
(3.46945e-18 2.77556e-17 -0)
(-1.38778e-17 -0 -0)
(-0 -0 -0)
(-0 -0 2.77556e-17)
(-0 -0 5.55112e-17)
(-0 -0 -0)
(-1.38778e-17 -2.77556e-17 -0)
(-0 -5.55112e-17 2.77556e-17)
(-0 -0 -2.77556e-17)
(-0 -2.77556e-17 -1.38778e-17)
(6.93889e-18 -0 1.38778e-17)
(1.38778e-17 -0 -0)
(-3.46945e-18 -5.55112e-17 2.77556e-17)
(2.77556e-17 5.55112e-17 -1.38778e-17)
(-2.08167e-17 -2.77556e-17 -0)
(6.93889e-18 -0 -4.16334e-17)
(6.93889e-18 2.77556e-17 -0)
(-0 2.77556e-17 -2.77556e-17)
(-0 -0 -1.38778e-17)
(-0 -5.55112e-17 2.77556e-17)
(-0 -0 2.77556e-17)
(-0 -2.77556e-17 2.77556e-17)
(-0 -0 -1.38778e-17)
(6.93889e-18 -0 -1.38778e-17)
(-0 -0 -0)
(-0 -0 -0)
(1.38778e-17 -0 -2.77556e-17)
(-0 -0 -1.38778e-17)
(3.46945e-18 -0 -0)
(-1.38778e-17 -0 -0)
(-0 -5.55112e-17 -0)
(-6.93889e-18 -5.55112e-17 2.77556e-17)
(-0 -5.55112e-17 -2.77556e-17)
(-0 -5.55112e-17 -0)
(-0 5.55112e-17 -2.77556e-17)
(-0 -0 1.38778e-17)
(-0 -5.55112e-17 -0)
(-0 -0 -1.38778e-17)
(-0 -5.55112e-17 1.38778e-17)
(-6.93889e-18 -0 -0)
(3.46945e-18 -0 -0)
(-1.38778e-17 5.55112e-17 -1.38778e-17)
(6.93889e-18 -0 -0)
(-0 -0 -0)
(-0 -0 -5.55112e-17)
(1.38778e-17 1.11022e-16 -1.38778e-17)
(-0 -0 1.38778e-17)
(-0 1.11022e-16 -0)
(-0 -0 -0)
(-0 -5.55112e-17 -1.38778e-17)
(-6.93889e-18 -5.55112e-17 2.77556e-17)
(-0 -0 -0)
(6.93889e-18 5.55112e-17 -2.77556e-17)
(-0 -5.55112e-17 -1.38778e-17)
(-0 -0 2.77556e-17)
(-1.38778e-17 -0 -0)
(-0 -0 -0)
(-0 5.55112e-17 -0)
(-0 -0 2.77556e-17)
(6.93889e-18 -0 -0)
(-6.93889e-18 -5.55112e-17 -0)
(-1.38778e-17 -5.55112e-17 2.77556e-17)
(-1.38778e-17 -0 1.38778e-17)
(-6.93889e-18 -5.55112e-17 -1.38778e-17)
(-3.46945e-18 -0 -0)
(1.38778e-17 -0 1.38778e-17)
(-1.38778e-17 -0 -0)
(-0 5.55112e-17 -2.77556e-17)
(-3.46945e-18 -1.11022e-16 4.16334e-17)
(1.38778e-17 -0 -1.38778e-17)
(-1.38778e-17 -0 1.38778e-17)
(-6.93889e-18 -1.11022e-16 4.16334e-17)
(-3.46945e-18 -0 2.77556e-17)
(1.38778e-17 -0 -1.38778e-17)
(-0 1.11022e-16 -0)
(-1.38778e-17 -5.55112e-17 -0)
(-0 -0 -0)
(1.38778e-17 1.11022e-16 -0)