/*--------------------------------*- C++ -*----------------------------------*\
  =========                 |
  \\      /  F ield         | OpenFOAM: The Open Source CFD Toolbox
   \\    /   O peration     | Website:  https://openfoam.org
    \\  /    A nd           | Version:  8
     \\/     M anipulation  |
\*---------------------------------------------------------------------------*/
FoamFile
{
    version     2.0;
    format      binary;
    class       polyBoundaryMesh;
    location    "3/polyMesh";
    object      boundary;
}
// * * * * * * * * * * * * * * * * * * * * * * * * * * * * * * * * * * * * * //

9
(
    frontAndBack
    {
        type            patch;
        nFaces          600;
        startFace       95489;
    }
    inlet
    {
        type            patch;
        nFaces          0;
        startFace       96089;
    }
    outlet
    {
        type            patch;
        nFaces          0;
        startFace       96089;
    }
    lowerWall
    {
        type            wall;
        inGroups        List<word> 1(wall);
        nFaces          1126;
        startFace       96089;
    }
    upperWall
    {
        type            patch;
        nFaces          72;
        startFace       97215;
    }
    body
    {
        type            wall;
        inGroups        List<word> 
2
(
walls
wall
)
;
        nFaces          3086;
        startFace       97287;
    }
    legs
    {
        type            wall;
        inGroups        List<word> 
2
(
walls
wall
)
;
        nFaces          480;
        startFace       100373;
    }
    procBoundary0to1
    {
        type            processor;
        inGroups        List<word> 1(processor);
        nFaces          986;
        startFace       100853;
        matchTolerance  0.0001;
        myProcNo        0;
        neighbProcNo    1;
    }
    procBoundary0to3
    {
        type            processor;
        inGroups        List<word> 1(processor);
        nFaces          864;
        startFace       101839;
        matchTolerance  0.0001;
        myProcNo        0;
        neighbProcNo    3;
    }
)

// ************************************************************************* //
