/*--------------------------------*- C++ -*----------------------------------*\
  =========                 |
  \\      /  F ield         | OpenFOAM: The Open Source CFD Toolbox
   \\    /   O peration     | Website:  https://openfoam.org
    \\  /    A nd           | Version:  8
     \\/     M anipulation  |
\*---------------------------------------------------------------------------*/
FoamFile
{
    version     2.0;
    format      binary;
    class       polyBoundaryMesh;
    location    "3/polyMesh";
    object      boundary;
}
// * * * * * * * * * * * * * * * * * * * * * * * * * * * * * * * * * * * * * //

11
(
    outerWalls
    {
        type            wall;
        inGroups        List<word> 1(wall);
        nFaces          640;
        startFace       1197056;
    }
    outlet
    {
        type            outlet;
        nFaces          112;
        startFace       1197696;
    }
    inlet
    {
        type            inlet;
        nFaces          112;
        startFace       1197808;
    }
    splitterFront
    {
        type            wall;
        inGroups        List<word> 1(wall);
        nFaces          384;
        startFace       1197920;
    }
    splitterRight
    {
        type            wall;
        inGroups        List<word> 1(wall);
        nFaces          96;
        startFace       1198304;
    }
    splitterRear
    {
        type            wall;
        inGroups        List<word> 1(wall);
        nFaces          414;
        startFace       1198400;
    }
    splitterLeft
    {
        type            wall;
        inGroups        List<word> 1(wall);
        nFaces          0;
        startFace       1198814;
    }
    splitterBottom
    {
        type            wall;
        inGroups        List<word> 1(wall);
        nFaces          256;
        startFace       1198814;
    }
    splitterTop
    {
        type            wall;
        inGroups        List<word> 1(wall);
        nFaces          0;
        startFace       1199070;
    }
    procBoundary1to0
    {
        type            processor;
        inGroups        List<word> 1(processor);
        nFaces          9707;
        startFace       1199070;
        matchTolerance  0.0001;
        myProcNo        1;
        neighbProcNo    0;
    }
    procBoundary1to3
    {
        type            processor;
        inGroups        List<word> 1(processor);
        nFaces          15670;
        startFace       1208777;
        matchTolerance  0.0001;
        myProcNo        1;
        neighbProcNo    3;
    }
)

// ************************************************************************* //
