/*--------------------------------*- C++ -*----------------------------------*\
  =========                 |
  \\      /  F ield         | OpenFOAM: The Open Source CFD Toolbox
   \\    /   O peration     | Website:  https://openfoam.org
    \\  /    A nd           | Version:  8
     \\/     M anipulation  |
\*---------------------------------------------------------------------------*/
FoamFile
{
    version     2.0;
    format      binary;
    class       polyBoundaryMesh;
    location    "3/polyMesh";
    object      boundary;
}
// * * * * * * * * * * * * * * * * * * * * * * * * * * * * * * * * * * * * * //

11
(
    outerWalls
    {
        type            wall;
        inGroups        List<word> 1(wall);
        nFaces          640;
        startFace       1197083;
    }
    outlet
    {
        type            outlet;
        nFaces          112;
        startFace       1197723;
    }
    inlet
    {
        type            inlet;
        nFaces          112;
        startFace       1197835;
    }
    splitterFront
    {
        type            wall;
        inGroups        List<word> 1(wall);
        nFaces          384;
        startFace       1197947;
    }
    splitterRight
    {
        type            wall;
        inGroups        List<word> 1(wall);
        nFaces          96;
        startFace       1198331;
    }
    splitterRear
    {
        type            wall;
        inGroups        List<word> 1(wall);
        nFaces          414;
        startFace       1198427;
    }
    splitterLeft
    {
        type            wall;
        inGroups        List<word> 1(wall);
        nFaces          0;
        startFace       1198841;
    }
    splitterBottom
    {
        type            wall;
        inGroups        List<word> 1(wall);
        nFaces          0;
        startFace       1198841;
    }
    splitterTop
    {
        type            wall;
        inGroups        List<word> 1(wall);
        nFaces          256;
        startFace       1198841;
    }
    procBoundary3to1
    {
        type            processor;
        inGroups        List<word> 1(processor);
        nFaces          15670;
        startFace       1199097;
        matchTolerance  0.0001;
        myProcNo        3;
        neighbProcNo    1;
    }
    procBoundary3to2
    {
        type            processor;
        inGroups        List<word> 1(processor);
        nFaces          9686;
        startFace       1214767;
        matchTolerance  0.0001;
        myProcNo        3;
        neighbProcNo    2;
    }
)

// ************************************************************************* //
