/*--------------------------------*- C++ -*----------------------------------*\
  =========                 |
  \\      /  F ield         | OpenFOAM: The Open Source CFD Toolbox
   \\    /   O peration     | Website:  https://openfoam.org
    \\  /    A nd           | Version:  8
     \\/     M anipulation  |
\*---------------------------------------------------------------------------*/
FoamFile
{
    version     2.0;
    format      ascii;
    class       dictionary;
    location    "system";
    object      fvSolution;
}
// * * * * * * * * * * * * * * * * * * * * * * * * * * * * * * * * * * * * * //

solvers
{
    p
    {
        solver          GAMG;
        tolerance       1e-05;
        relTol          0.01;
        smoother        GaussSeidel;
    }

    pFinal
    {
	    $p;
	    reltol	0;
    }

    "(U|k|epsilon|rho)Final"
    {
        solver          smoothSolver;
        smoother        symGaussSeidel;
        tolerance       1e-05;
        relTol          0;
    }
    "(U|k|epsilon|rho)"
    {
        solver          smoothSolver;
        smoother        symGaussSeidel;
        tolerance       1e-05;
        relTol          0.1;
    }
 /*   rho
	{ 
		solver	diagonal;
	}*/
    "h.*"
    {
	    $U;
	    tolerance	1e-6;
	    reltol	0.0;
    }
}

SIMPLE
{
    nNonOrthogonalCorrectors 0;
    consistent      yes;

    residualControl
    {
        p               1e-3;
        U               1e-4;
        "(k|epsilon)" 1e-3;
    }
}

PIMPLE
{
	nCorrectors		1;
	nOuterCorrectors	100; 
	turbOnFinalIterOnly	no;
	nNonOrthogonalCorrectors	0;
	consistent		no;

	outerCorrectorResidualControl
	{
		"(U|k|epsilon|p)"
		{
			relTol	0;
			tolerance	1e-4;
		}
	}
}

relaxationFactors
{
	fields
	{
		"p.*"	0.3;
	}

	equations
       	{
        	"U.*"               	0.7;
       		"(k|epsilon).*"         0.5;
    	}
}


// ************************************************************************* //
