/*--------------------------------*- C++ -*----------------------------------*\
| =========                 |                                                 |
| \\      /  F ield         | OpenFOAM: The Open Source CFD Toolbox           |
|  \\    /   O peration     | Version:  2.3.0                                 |
|   \\  /    A nd           | Web:      www.OpenFOAM.org                      |
|    \\/     M anipulation  |                                                 |
\*---------------------------------------------------------------------------*/
FoamFile
{
    version     2.0;
    format      ascii;
    class       dictionary;
    object      blockMeshDict;
}

// * * * * * * * * * * * * * * * * * * * * * * * * * * * * * * * * * * * * * //

convertToMeters 1;

vertices
(
    (-0.12 -0.2995 -0.12)
    (0.12 -0.2995  -0.12)
    (0.12 0.4995   -0.12)
    (-0.12 0.4995  -0.12)
    (-0.12 -0.2995  0.12)
    (0.12 -0.2995   0.12)
    (0.12 0.4995    0.12)
    (-0.12 0.4995   0.12)
);

blocks
(
    hex (0 1 2 3 4 5 6 7) (10 33 10) simpleGrading (1 1 1)
);


edges
(
);

boundary
(
    inlet
    {
        type patch;
        faces
        (
            (1 5 4 0)
            

        );
    }
    outlet
    {
        type patch;
        faces
        (

            (3 7 6 2)
        );
    }
    outerWalls
    {
        type wall;
        faces
        (
            (2 6 5 1)
            (0 3 2 1)
            (4 5 6 7)
            (0 4 7 3)
        );
    }
);

// ************************************************************************* //
