/*--------------------------------*- C++ -*----------------------------------*\
  =========                 |
  \\      /  F ield         | OpenFOAM: The Open Source CFD Toolbox
   \\    /   O peration     | Website:  https://openfoam.org
    \\  /    A nd           | Version:  8
     \\/     M anipulation  |
\*---------------------------------------------------------------------------*/
FoamFile
{
    version     2.0;
    format      ascii;
    class       polyBoundaryMesh;
    location    "constant/polyMesh";
    object      boundary;
}
// * * * * * * * * * * * * * * * * * * * * * * * * * * * * * * * * * * * * * //

9
(
    inlet
    {
        type            patch;
        nFaces          0;
        startFace       7725;
    }
    outlet
    {
        type            patch;
        nFaces          50;
        startFace       7725;
    }
    splitter
    {
        type            wall;
        inGroups        List<word> 1(wall);
        nFaces          0;
        startFace       7775;
    }
    fuel_inlet
    {
        type            patch;
        nFaces          10;
        startFace       7775;
    }
    back
    {
        type            wall;
        inGroups        List<word> 1(wall);
        nFaces          11;
        startFace       7785;
    }
    sides
    {
        type            wall;
        inGroups        List<word> 1(wall);
        nFaces          71;
        startFace       7796;
    }
    frontAndBack
    {
        type            empty;
        inGroups        List<word> 1(empty);
        nFaces          7858;
        startFace       7867;
    }
    procBoundary3to0
    {
        type            processor;
        inGroups        List<word> 1(processor);
        nFaces          41;
        startFace       15725;
        matchTolerance  0.0001;
        myProcNo        3;
        neighbProcNo    0;
    }
    procBoundary3to2
    {
        type            processor;
        inGroups        List<word> 1(processor);
        nFaces          83;
        startFace       15766;
        matchTolerance  0.0001;
        myProcNo        3;
        neighbProcNo    2;
    }
)

// ************************************************************************* //
