/*--------------------------------*- C++ -*----------------------------------*\
  =========                 |
  \\      /  F ield         | OpenFOAM: The Open Source CFD Toolbox
   \\    /   O peration     | Website:  https://openfoam.org
    \\  /    A nd           | Version:  8
     \\/     M anipulation  |
\*---------------------------------------------------------------------------*/
FoamFile
{
    version     2.0;
    format      ascii;
    class       polyBoundaryMesh;
    location    "constant/polyMesh";
    object      boundary;
}
// * * * * * * * * * * * * * * * * * * * * * * * * * * * * * * * * * * * * * //

9
(
    inlet
    {
        type            patch;
        nFaces          70;
        startFace       7709;
    }
    outlet
    {
        type            patch;
        nFaces          0;
        startFace       7779;
    }
    splitter
    {
        type            wall;
        inGroups        List<word> 1(wall);
        nFaces          35;
        startFace       7779;
    }
    fuel_inlet
    {
        type            patch;
        nFaces          0;
        startFace       7814;
    }
    back
    {
        type            wall;
        inGroups        List<word> 1(wall);
        nFaces          0;
        startFace       7814;
    }
    sides
    {
        type            wall;
        inGroups        List<word> 1(wall);
        nFaces          59;
        startFace       7814;
    }
    frontAndBack
    {
        type            empty;
        inGroups        List<word> 1(empty);
        nFaces          7838;
        startFace       7873;
    }
    procBoundary0to1
    {
        type            processor;
        inGroups        List<word> 1(processor);
        nFaces          53;
        startFace       15711;
        matchTolerance  0.0001;
        myProcNo        0;
        neighbProcNo    1;
    }
    procBoundary0to3
    {
        type            processor;
        inGroups        List<word> 1(processor);
        nFaces          41;
        startFace       15764;
        matchTolerance  0.0001;
        myProcNo        0;
        neighbProcNo    3;
    }
)

// ************************************************************************* //
