/*--------------------------------*- C++ -*----------------------------------*\
  =========                 |
  \\      /  F ield         | OpenFOAM: The Open Source CFD Toolbox
   \\    /   O peration     | Website:  https://openfoam.org
    \\  /    A nd           | Version:  8
     \\/     M anipulation  |
\*---------------------------------------------------------------------------*/
FoamFile
{
    version     2.0;
    format      binary;
    class       polyBoundaryMesh;
    location    "3/polyMesh";
    object      boundary;
}
// * * * * * * * * * * * * * * * * * * * * * * * * * * * * * * * * * * * * * //

11
(
    outerWalls
    {
        type            wall;
        inGroups        List<word> 1(wall);
        nFaces          640;
        startFace       1197063;
    }
    outlet
    {
        type            outlet;
        nFaces          112;
        startFace       1197703;
    }
    inlet
    {
        type            inlet;
        nFaces          112;
        startFace       1197815;
    }
    splitterFront
    {
        type            wall;
        inGroups        List<word> 1(wall);
        nFaces          384;
        startFace       1197927;
    }
    splitterRight
    {
        type            wall;
        inGroups        List<word> 1(wall);
        nFaces          0;
        startFace       1198311;
    }
    splitterRear
    {
        type            wall;
        inGroups        List<word> 1(wall);
        nFaces          414;
        startFace       1198311;
    }
    splitterLeft
    {
        type            wall;
        inGroups        List<word> 1(wall);
        nFaces          96;
        startFace       1198725;
    }
    splitterBottom
    {
        type            wall;
        inGroups        List<word> 1(wall);
        nFaces          0;
        startFace       1198821;
    }
    splitterTop
    {
        type            wall;
        inGroups        List<word> 1(wall);
        nFaces          256;
        startFace       1198821;
    }
    procBoundary2to0
    {
        type            processor;
        inGroups        List<word> 1(processor);
        nFaces          15680;
        startFace       1199077;
        matchTolerance  0.0001;
        myProcNo        2;
        neighbProcNo    0;
    }
    procBoundary2to3
    {
        type            processor;
        inGroups        List<word> 1(processor);
        nFaces          9686;
        startFace       1214757;
        matchTolerance  0.0001;
        myProcNo        2;
        neighbProcNo    3;
    }
)

// ************************************************************************* //
