/*--------------------------------*- C++ -*----------------------------------*\
  =========                 |
  \\      /  F ield         | OpenFOAM: The Open Source CFD Toolbox
   \\    /   O peration     | Website:  https://openfoam.org
    \\  /    A nd           | Version:  8
     \\/     M anipulation  |
\*---------------------------------------------------------------------------*/
FoamFile
{
    version     2.0;
    format      binary;
    class       polyBoundaryMesh;
    location    "3/polyMesh";
    object      boundary;
}
// * * * * * * * * * * * * * * * * * * * * * * * * * * * * * * * * * * * * * //

8
(
    frontAndBack
    {
        type            patch;
        nFaces          1108;
        startFace       95619;
    }
    inlet
    {
        type            patch;
        nFaces          25;
        startFace       96727;
    }
    outlet
    {
        type            patch;
        nFaces          0;
        startFace       96752;
    }
    lowerWall
    {
        type            wall;
        inGroups        List<word> 1(wall);
        nFaces          741;
        startFace       96752;
    }
    upperWall
    {
        type            patch;
        nFaces          102;
        startFace       97493;
    }
    body
    {
        type            wall;
        inGroups        List<word> 
2
(
walls
wall
)
;
        nFaces          2078;
        startFace       97595;
    }
    legs
    {
        type            wall;
        inGroups        List<word> 
2
(
walls
wall
)
;
        nFaces          0;
        startFace       99673;
    }
    procBoundary2to3
    {
        type            processor;
        inGroups        List<word> 1(processor);
        nFaces          875;
        startFace       99673;
        matchTolerance  0.0001;
        myProcNo        2;
        neighbProcNo    3;
    }
)

// ************************************************************************* //
