/*--------------------------------*- C++ -*----------------------------------*\
  =========                 |
  \\      /  F ield         | OpenFOAM: The Open Source CFD Toolbox
   \\    /   O peration     | Website:  https://openfoam.org
    \\  /    A nd           | Version:  8
     \\/     M anipulation  |
\*---------------------------------------------------------------------------*/
FoamFile
{
    version     2.0;
    format      binary;
    class       polyBoundaryMesh;
    location    "2/polyMesh";
    object      boundary;
}
// * * * * * * * * * * * * * * * * * * * * * * * * * * * * * * * * * * * * * //

9
(
    frontAndBack
    {
        type            patch;
        nFaces          438;
        startFace       70573;
    }
    inlet
    {
        type            patch;
        nFaces          0;
        startFace       71011;
    }
    outlet
    {
        type            patch;
        nFaces          0;
        startFace       71011;
    }
    lowerWall
    {
        type            wall;
        inGroups        List<word> 1(wall);
        nFaces          1239;
        startFace       71011;
    }
    upperWall
    {
        type            patch;
        nFaces          71;
        startFace       72250;
    }
    body
    {
        type            wall;
        inGroups        List<word> 
2
(
walls
wall
)
;
        nFaces          3355;
        startFace       72321;
    }
    legs
    {
        type            wall;
        inGroups        List<word> 
2
(
walls
wall
)
;
        nFaces          481;
        startFace       75676;
    }
    procBoundary1to0
    {
        type            processor;
        inGroups        List<word> 1(processor);
        nFaces          723;
        startFace       76157;
        matchTolerance  0.0001;
        myProcNo        1;
        neighbProcNo    0;
    }
    procBoundary1to3
    {
        type            processor;
        inGroups        List<word> 1(processor);
        nFaces          687;
        startFace       76880;
        matchTolerance  0.0001;
        myProcNo        1;
        neighbProcNo    3;
    }
)

// ************************************************************************* //
