/*--------------------------------*- C++ -*----------------------------------*\
  =========                 |
  \\      /  F ield         | OpenFOAM: The Open Source CFD Toolbox
   \\    /   O peration     | Website:  https://openfoam.org
    \\  /    A nd           | Version:  8
     \\/     M anipulation  |
\*---------------------------------------------------------------------------*/
FoamFile
{
    version     2.0;
    format      ascii;
    class       dictionary;
    location    "constant";
    object      thermophysicalProperties;
}
// * * * * * * * * * * * * * * * * * * * * * * * * * * * * * * * * * * * * * //

thermoType
{
    type            hePsiThermo;
    mixture         multiComponentMixture;
    transport       sutherland;
    thermo          janaf;
    energy          sensibleEnthalpy;
    equationOfState perfectGas;
    specie          specie;
}

inertSpecie     N2;


// chemistryReader chemkinReader;
// CHEMKINFile     "$FOAM_CASE/chemkin/chem.inp";
// CHEMKINThermoFile "$FOAM_CASE/chemkin/therm.dat";
// CHEMKINTransportFile "$FOAM_CASE/chemkin/transportProperties";
// newFormat       yes;


#include "$FOAM_CASE/constant/thermo.mixture";

liquids
{}

solids
{}


// ************************************************************************* //
