/*--------------------------------*- C++ -*----------------------------------*\
  =========                 |
  \\      /  F ield         | OpenFOAM: The Open Source CFD Toolbox
   \\    /   O peration     | Website:  https://openfoam.org
    \\  /    A nd           | Version:  8
     \\/     M anipulation  |
\*---------------------------------------------------------------------------*/
FoamFile
{
    version     2.0;
    format      ascii;
    class       polyBoundaryMesh;
    location    "constant/polyMesh";
    object      boundary;
}
// * * * * * * * * * * * * * * * * * * * * * * * * * * * * * * * * * * * * * //

9
(
    inlet
    {
        type            patch;
        nFaces          50;
        startFace       7681;
    }
    outlet
    {
        type            patch;
        nFaces          0;
        startFace       7731;
    }
    splitter
    {
        type            wall;
        inGroups        List<word> 1(wall);
        nFaces          15;
        startFace       7731;
    }
    fuel_inlet
    {
        type            patch;
        nFaces          1;
        startFace       7746;
    }
    back
    {
        type            wall;
        inGroups        List<word> 1(wall);
        nFaces          0;
        startFace       7747;
    }
    sides
    {
        type            wall;
        inGroups        List<word> 1(wall);
        nFaces          88;
        startFace       7747;
    }
    frontAndBack
    {
        type            empty;
        inGroups        List<word> 1(empty);
        nFaces          7820;
        startFace       7835;
    }
    procBoundary1to0
    {
        type            processor;
        inGroups        List<word> 1(processor);
        nFaces          53;
        startFace       15655;
        matchTolerance  0.0001;
        myProcNo        1;
        neighbProcNo    0;
    }
    procBoundary1to2
    {
        type            processor;
        inGroups        List<word> 1(processor);
        nFaces          71;
        startFace       15708;
        matchTolerance  0.0001;
        myProcNo        1;
        neighbProcNo    2;
    }
)

// ************************************************************************* //
