/*--------------------------------*- C++ -*----------------------------------*\
  =========                 |
  \\      /  F ield         | OpenFOAM: The Open Source CFD Toolbox
   \\    /   O peration     | Website:  https://openfoam.org
    \\  /    A nd           | Version:  8
     \\/     M anipulation  |
\*---------------------------------------------------------------------------*/
FoamFile
{
    version     2.0;
    format      binary;
    class       polyBoundaryMesh;
    location    "1/polyMesh";
    object      boundary;
}
// * * * * * * * * * * * * * * * * * * * * * * * * * * * * * * * * * * * * * //

8
(
    frontAndBack
    {
        type            patch;
        nFaces          925;
        startFace       72513;
    }
    inlet
    {
        type            patch;
        nFaces          25;
        startFace       73438;
    }
    outlet
    {
        type            patch;
        nFaces          0;
        startFace       73463;
    }
    lowerWall
    {
        type            wall;
        inGroups        List<word> 1(wall);
        nFaces          718;
        startFace       73463;
    }
    upperWall
    {
        type            patch;
        nFaces          95;
        startFace       74181;
    }
    body
    {
        type            wall;
        inGroups        List<word> 
2
(
walls
wall
)
;
        nFaces          2670;
        startFace       74276;
    }
    legs
    {
        type            wall;
        inGroups        List<word> 
2
(
walls
wall
)
;
        nFaces          0;
        startFace       76946;
    }
    procBoundary2to3
    {
        type            processor;
        inGroups        List<word> 1(processor);
        nFaces          808;
        startFace       76946;
        matchTolerance  0.0001;
        myProcNo        2;
        neighbProcNo    3;
    }
)

// ************************************************************************* //
