/*--------------------------------*- C++ -*----------------------------------*\
  =========                 |
  \\      /  F ield         | OpenFOAM: The Open Source CFD Toolbox
   \\    /   O peration     | Website:  https://openfoam.org
    \\  /    A nd           | Version:  8
     \\/     M anipulation  |
\*---------------------------------------------------------------------------*/
FoamFile
{
    version     2.0;
    format      ascii;
    class       polyBoundaryMesh;
    location    "constant/polyMesh";
    object      boundary;
}
// * * * * * * * * * * * * * * * * * * * * * * * * * * * * * * * * * * * * * //

9
(
    inlet
    {
        type            patch;
        nFaces          0;
        startFace       7690;
    }
    outlet
    {
        type            patch;
        nFaces          71;
        startFace       7690;
    }
    splitter
    {
        type            wall;
        inGroups        List<word> 1(wall);
        nFaces          0;
        startFace       7761;
    }
    fuel_inlet
    {
        type            patch;
        nFaces          9;
        startFace       7761;
    }
    back
    {
        type            wall;
        inGroups        List<word> 1(wall);
        nFaces          20;
        startFace       7770;
    }
    sides
    {
        type            wall;
        inGroups        List<word> 1(wall);
        nFaces          42;
        startFace       7790;
    }
    frontAndBack
    {
        type            empty;
        inGroups        List<word> 1(empty);
        nFaces          7838;
        startFace       7832;
    }
    procBoundary2to1
    {
        type            processor;
        inGroups        List<word> 1(processor);
        nFaces          71;
        startFace       15670;
        matchTolerance  0.0001;
        myProcNo        2;
        neighbProcNo    1;
    }
    procBoundary2to3
    {
        type            processor;
        inGroups        List<word> 1(processor);
        nFaces          83;
        startFace       15741;
        matchTolerance  0.0001;
        myProcNo        2;
        neighbProcNo    3;
    }
)

// ************************************************************************* //
